  93
       -151.27738884
 Cl         0.0006968026        0.0005287981        0.0000462509
 O         -3.4273622065       -2.0384846217       -3.3093391648
 O          3.4270042430       -2.0371942931       -3.3104371062
 O          3.4274329928        3.8864340937       -0.1087776629
 O         -3.4272434552        3.8863996249       -0.1104686691
 O         -3.4272014586       -1.8487596403        3.4192257394
 O          3.4273043415       -1.8505942013        3.4182078427
 N         -4.5424327569        0.0002773942        0.0005709096
 C         -4.8697271570       -1.2348321755       -0.6759830882
 H         -5.0202775434       -1.0365366373       -1.7383767472
 H         -5.7917346885       -1.6916452118       -0.2811474284
 C         -3.7241497118       -2.2524402769       -0.5582550222
 H         -3.4758390230       -2.4311808350        0.4877675714
 H         -4.0475552791       -3.1893354629       -1.0238724695
 N         -2.5340279623       -1.8012601654       -1.2407998127
 H         -1.8030503726       -1.3513973629       -0.7030241454
 C         -2.4990014812       -1.7106927699       -2.5850147532
 C         -1.2030131676       -1.2004786969       -3.1246692219
 C         -0.0001447768       -1.6580147709       -2.6044515054
 H          0.0000751948       -2.3946778205       -1.8146757785
 C         -1.1987834035       -0.2904934572       -4.1755203718
 H         -2.1416745713        0.0488145374       -4.5796321729
 C         -0.0007320198        0.1674784846       -4.6940329652
 H         -0.0009678499        0.8804536083       -5.5061246414
 C          1.1976081592       -0.2900424818       -4.1757985146
 H          2.1402796366        0.0496609413       -4.5800940966
 C          1.2024275968       -1.2000536812       -3.1249821333
 C          2.4987156504       -1.7099394107       -2.5857695157
 N          2.5340886149       -1.8009895725       -1.2416004656
 H          1.8032193116       -1.3513459216       -0.7034886362
 C          3.7244386332       -2.2522754996       -0.5595224267
 H          4.0478893377       -3.1888924137       -1.0256662354
 H          3.4763740100       -2.4315827001        0.4864633685
 C          4.8698640529       -1.2344751823       -0.6769528911
 H          5.7920806972       -1.6913789514       -0.2826902632
 H          5.0200432542       -1.0355137008       -1.7392707024
 N          4.5425709876        0.0001807832        0.0004420270
 C          4.8696144273        1.2042004289       -0.7301331780
 H          5.7917753443        1.0913112224       -1.3230494839
 H          5.0197914391        2.0247392841       -0.0266986418
 C          3.7240609205        1.6112571017       -1.6702018217
 H          4.0475071047        2.4830128714       -2.2486433026
 H          3.4757005639        0.7948538466       -2.3481358740
 N          2.5339495980        1.9767142077       -0.9381512195
 H          1.8028897673        1.2860915691       -0.8176485901
 C          2.4989288502        3.0954482614       -0.1874611601
 C          1.2026700883        3.3080983076        0.5235837648
 C          0.0000690952        3.0859228861       -0.1331331129
 H          0.0002686507        2.7695630188       -1.1657673169
 C          1.1978795475        3.7641123740        1.8367475851
 H          2.1405750943        3.9447271044        2.3329280091
 C         -0.0004517220        3.9846905144        2.4919297682
 H         -0.0006684717        4.3324331149        3.5151144160
 C         -1.1985267256        3.7641712958        1.8362418152
 H         -2.1414138481        3.9448994058        2.3320078790
 C         -1.2027885862        3.3081332478        0.5230814834
 C         -2.4987668678        3.0953409447       -0.1884424177
 N         -2.5335671093        1.9762657997       -0.9386175778
 H         -1.8024464117        1.2857755736       -0.8177470531
 C         -3.7234828839        1.6104391822       -1.6708053874
 H         -3.4749636225        0.7936417027       -2.3481950831
 H         -4.0467860211        2.4818657629       -2.2498299224
 C         -4.8692759102        1.2038534787       -0.7308205298
 H         -5.0196865135        2.0248182616       -0.0279356669
 H         -5.7912438629        1.0905840992       -1.3239536978
 C         -4.8691666990        0.0319700077        1.4086171041
 H         -5.0202204730       -0.9871665102        1.7680734385
 H         -5.7907293204        0.6028789986        1.6072170834
 C         -3.7228737287        0.6419260267        2.2306370852
 H         -3.4740755594        1.6370603950        1.8624022365
 H         -4.0458448637        0.7072722778        3.2749524548
 N         -2.5332511170       -0.1754484309        2.1805825834
 H         -1.8020389590        0.0655407672        1.5224072231
 C         -2.4986941247       -1.3852349287        2.7734886916
 C         -1.2028610674       -2.1078856512        2.6010022825
 C          0.0000449117       -1.4287726735        2.7376464573
 H          0.0002987332       -0.3766670660        2.9815309570
 C         -1.1986803648       -3.4727369343        2.3373166350
 H         -2.1415711928       -3.9923073052        2.2452145504
 C         -0.0006345601       -4.1506723551        2.1993926227
 H         -0.0009070541       -5.2103242261        1.9873355519
 C          1.1977466878       -3.4732540585        2.3369100153
 H          2.1403847439       -3.9932240714        2.2444505814
 C          1.2026093010       -2.1084203478        2.6006434143
 C          2.4987895914       -1.3863819148        2.7729686570
 N          2.5336605483       -0.1763135702        2.1806522909
 H          1.8025184030        0.0651610647        1.5225767157
 C          3.7235342225        0.6406809185        2.2309978232
 H          4.0466916128        0.7053123904        3.2753018509
 H          3.4749651589        1.6361105217        1.8633905168
 C          4.8695244622        0.0308847120        1.4084627683
 H          5.7912907762        0.6013909920        1.6072803996
 H          5.0203136891       -0.9885245856        1.7672593221
